*Heading
** Job name: Cohesive_Trapi Model name: Model-1
** Generated by: Abaqus/CAE 2020
*Preprint, echo=NO, model=NO, history=NO, contact=NO
**
** PARTS
**
*Part, name=Part-1
*Node
      1,        23.75,        -1.25
      2,         3.75,        -1.25
      3,        -1.25,        -1.25
      4,        -1.25,       -21.25
      5,        23.75,       -21.25
      6,        23.75,          -1.
      7,         3.75,          -1.
      8,        23.75,          19.
      9,        -1.25,          19.
     10,        -1.25,          -1.
     11,   23.4514923,        -1.25
     12,   23.1529846,        -1.25
     13,   22.8544769,        -1.25
     14,   22.5559692,        -1.25
     15,   22.2574635,        -1.25
     16,   21.9589558,        -1.25
     17,   21.6604481,        -1.25
     18,   21.3619404,        -1.25
     19,   21.0634327,        -1.25
     20,    20.764925,        -1.25
** ... 3550 like lines cut
*Element, type=CPS4
   1,    1,   11,  417,  213
   2,   11,   12,  418,  417
   3,   12,   13,  419,  418
   4,   13,   14,  420,  419
   5,   14,   15,  421,  420
   6,   15,   16,  422,  421
   7,   16,   17,  423,  422
   8,   17,   18,  424,  423
   9,   18,   19,  425,  424
  10,   19,   20,  426,  425
  11,   20,   21,  427,  426
  12,   21,   22,  428,  427
  13,   22,   23,  429,  428
  14,   23,   24,  430,  429
  15,   24,   25,  431,  430
  16,   25,   26,  432,  431
  17,   26,   27,  433,  432
  18,   27,   28,  434,  433
  19,   28,   29,  435,  434
  20,   29,   30,  436,  435
** ... 3340 like lines cut
*Element, type=COH2D4
1681,   2,  76, 279,   7
1682,  76,  75, 278, 279
1683,  75,  74, 277, 278
1684,  74,  73, 276, 277
1685,  73,  72, 275, 276
1686,  72,  71, 274, 275
1687,  71,  70, 273, 274
1688,  70,  69, 272, 273
1689,  69,  68, 271, 272
1690,  68,  67, 270, 271
1691,  67,  66, 269, 270
1692,  66,  65, 268, 269
1693,  65,  64, 267, 268
1694,  64,  63, 266, 267
1695,  63,  62, 265, 266
1696,  62,  61, 264, 265
1697,  61,  60, 263, 264
1698,  60,  59, 262, 263
1699,  59,  58, 261, 262
1700,  58,  57, 260, 261
** ... 47 like lines cut
*Nset, nset=Set-1, generate
    1,  3570,     1
*Elset, elset=Set-1
    1,    2,    3,    4,    5,    6,    7,    8,    9,   10,   11,   12,   13,   14,   15,   16
   17,   18,   19,   20,   21,   22,   23,   24,   25,   26,   27,   28,   29,   30,   31,   32
   33,   34,   35,   36,   37,   38,   39,   40,   41,   42,   43,   44,   45,   46,   47,   48
   49,   50,   51,   52,   53,   54,   55,   56,   57,   58,   59,   60,   61,   62,   63,   64
   65,   66,   67,   68,   69,   70,   71,   72,   73,   74,   75,   76,   77,   78,   79,   80
   81,   82,   83,   84,   85,   86,   87,   88,   89,   90,   91,   92,   93,   94,   95,   96
   97,   98,   99,  100,  101,  102,  103,  104,  105,  106,  107,  108,  109,  110,  111,  112
  113,  114,  115,  116,  117,  118,  119,  120,  121,  122,  123,  124,  125,  126,  127,  128
  129,  130,  131,  132,  133,  134,  135,  136,  137,  138,  139,  140,  141,  142,  143,  144
  145,  146,  147,  148,  149,  150,  151,  152,  153,  154,  155,  156,  157,  158,  159,  160
  161,  162,  163,  164,  165,  166,  167,  168,  169,  170,  171,  172,  173,  174,  175,  176
  177,  178,  179,  180,  181,  182,  183,  184,  185,  186,  187,  188,  189,  190,  191,  192
  193,  194,  195,  196,  197,  198,  199,  200,  201,  202,  203,  204,  205,  206,  207,  208
  209,  210,  211,  212,  213,  214,  215,  216,  217,  218,  219,  220,  221,  222,  223,  224
  225,  226,  227,  228,  229,  230,  231,  232,  233,  234,  235,  236,  237,  238,  239,  240
  241,  242,  243,  244,  245,  246,  247,  248,  249,  250,  251,  252,  253,  254,  255,  256
  257,  258,  259,  260,  261,  262,  263,  264,  265,  266,  267,  268,  269,  270,  271,  272
  273,  274,  275,  276,  277,  278,  279,  280,  281,  282,  283,  284,  285,  286,  287,  288
  289,  290,  291,  292,  293,  294,  295,  296,  297,  298,  299,  300,  301,  302,  303,  304
  305,  306,  307,  308,  309,  310,  311,  312,  313,  314,  315,  316,  317,  318,  319,  320
** ... 190 like lines cut
*Nset, nset=Set-2
   1,   2,   6,   7,  11,  12,  13,  14,  15,  16,  17,  18,  19,  20,  21,  22
  23,  24,  25,  26,  27,  28,  29,  30,  31,  32,  33,  34,  35,  36,  37,  38
  39,  40,  41,  42,  43,  44,  45,  46,  47,  48,  49,  50,  51,  52,  53,  54
  55,  56,  57,  58,  59,  60,  61,  62,  63,  64,  65,  66,  67,  68,  69,  70
  71,  72,  73,  74,  75,  76, 214, 215, 216, 217, 218, 219, 220, 221, 222, 223
 224, 225, 226, 227, 228, 229, 230, 231, 232, 233, 234, 235, 236, 237, 238, 239
 240, 241, 242, 243, 244, 245, 246, 247, 248, 249, 250, 251, 252, 253, 254, 255
 256, 257, 258, 259, 260, 261, 262, 263, 264, 265, 266, 267, 268, 269, 270, 271
 272, 273, 274, 275, 276, 277, 278, 279
*Elset, elset=Set-2, generate
 1681,  1747,     1
*Nset, nset=Set-15
   1,   2,   6,   7,  11,  12,  13,  14,  15,  16,  17,  18,  19,  20,  21,  22
  23,  24,  25,  26,  27,  28,  29,  30,  31,  32,  33,  34,  35,  36,  37,  38
  39,  40,  41,  42,  43,  44,  45,  46,  47,  48,  49,  50,  51,  52,  53,  54
  55,  56,  57,  58,  59,  60,  61,  62,  63,  64,  65,  66,  67,  68,  69,  70
  71,  72,  73,  74,  75,  76, 214, 215, 216, 217, 218, 219, 220, 221, 222, 223
 224, 225, 226, 227, 228, 229, 230, 231, 232, 233, 234, 235, 236, 237, 238, 239
 240, 241, 242, 243, 244, 245, 246, 247, 248, 249, 250, 251, 252, 253, 254, 255
 256, 257, 258, 259, 260, 261, 262, 263, 264, 265, 266, 267, 268, 269, 270, 271
 272, 273, 274, 275, 276, 277, 278, 279
*Elset, elset=Set-15, generate
 1681,  1747,     1
*Nset, nset=Set-17, generate
    1,  3570,     1
*Elset, elset=Set-17
    1,    2,    3,    4,    5,    6,    7,    8,    9,   10,   11,   12,   13,   14,   15,   16
   17,   18,   19,   20,   21,   22,   23,   24,   25,   26,   27,   28,   29,   30,   31,   32
   33,   34,   35,   36,   37,   38,   39,   40,   41,   42,   43,   44,   45,   46,   47,   48
   49,   50,   51,   52,   53,   54,   55,   56,   57,   58,   59,   60,   61,   62,   63,   64
   65,   66,   67,   68,   69,   70,   71,   72,   73,   74,   75,   76,   77,   78,   79,   80
   81,   82,   83,   84,   85,   86,   87,   88,   89,   90,   91,   92,   93,   94,   95,   96
   97,   98,   99,  100,  101,  102,  103,  104,  105,  106,  107,  108,  109,  110,  111,  112
  113,  114,  115,  116,  117,  118,  119,  120,  121,  122,  123,  124,  125,  126,  127,  128
  129,  130,  131,  132,  133,  134,  135,  136,  137,  138,  139,  140,  141,  142,  143,  144
  145,  146,  147,  148,  149,  150,  151,  152,  153,  154,  155,  156,  157,  158,  159,  160
  161,  162,  163,  164,  165,  166,  167,  168,  169,  170,  171,  172,  173,  174,  175,  176
  177,  178,  179,  180,  181,  182,  183,  184,  185,  186,  187,  188,  189,  190,  191,  192
  193,  194,  195,  196,  197,  198,  199,  200,  201,  202,  203,  204,  205,  206,  207,  208
  209,  210,  211,  212,  213,  214,  215,  216,  217,  218,  219,  220,  221,  222,  223,  224
  225,  226,  227,  228,  229,  230,  231,  232,  233,  234,  235,  236,  237,  238,  239,  240
  241,  242,  243,  244,  245,  246,  247,  248,  249,  250,  251,  252,  253,  254,  255,  256
  257,  258,  259,  260,  261,  262,  263,  264,  265,  266,  267,  268,  269,  270,  271,  272
  273,  274,  275,  276,  277,  278,  279,  280,  281,  282,  283,  284,  285,  286,  287,  288
  289,  290,  291,  292,  293,  294,  295,  296,  297,  298,  299,  300,  301,  302,  303,  304
  305,  306,  307,  308,  309,  310,  311,  312,  313,  314,  315,  316,  317,  318,  319,  320
** ... 190 like lines cut
*Nset, nset=Set-18
   1,   2,   6,   7,  11,  12,  13,  14,  15,  16,  17,  18,  19,  20,  21,  22
  23,  24,  25,  26,  27,  28,  29,  30,  31,  32,  33,  34,  35,  36,  37,  38
  39,  40,  41,  42,  43,  44,  45,  46,  47,  48,  49,  50,  51,  52,  53,  54
  55,  56,  57,  58,  59,  60,  61,  62,  63,  64,  65,  66,  67,  68,  69,  70
  71,  72,  73,  74,  75,  76, 214, 215, 216, 217, 218, 219, 220, 221, 222, 223
 224, 225, 226, 227, 228, 229, 230, 231, 232, 233, 234, 235, 236, 237, 238, 239
 240, 241, 242, 243, 244, 245, 246, 247, 248, 249, 250, 251, 252, 253, 254, 255
 256, 257, 258, 259, 260, 261, 262, 263, 264, 265, 266, 267, 268, 269, 270, 271
 272, 273, 274, 275, 276, 277, 278, 279
*Elset, elset=Set-18, generate
 1681,  1747,     1
** Section: Section-1
*Solid Section, elset=Set-17, material=Rubber
1.2,
** Section: Section-2
*Cohesive Section, elset=Set-18, controls=EC-1, material=Trapi, response=TRACTION SEPARATION
, 1.2
*End Part
**  
**
** ASSEMBLY
**
*Assembly, name=Assembly
**  
*Instance, name=Part-1-1, part=Part-1
*End Instance
**  
*Node
      1,        11.25,          19.,           0.
*Nset, nset=RefP
 1,
*Nset, nset=Set-1, instance=Part-1-1
   4,   5, 112, 113, 114, 115, 116, 117, 118, 119, 120, 121, 122, 123, 124, 125
 126, 127, 128, 129, 130, 131, 132, 133, 134, 135, 136, 137, 138, 139, 140, 141
 142, 143, 144, 145, 146, 147, 148, 149, 150, 151, 152, 153, 154, 155, 156, 157
 158, 159, 160, 161, 162, 163, 164, 165, 166, 167, 168, 169, 170, 171, 172, 173
 174, 175, 176, 177, 178, 179, 180, 181, 182, 183, 184, 185, 186, 187, 188, 189
 190, 191, 192, 193, 194
*Elset, elset=Set-1, instance=Part-1-1, generate
 1597,  1680,     1
*Nset, nset=Set-6, instance=Part-1-1
   4,   5, 112, 113, 114, 115, 116, 117, 118, 119, 120, 121, 122, 123, 124, 125
 126, 127, 128, 129, 130, 131, 132, 133, 134, 135, 136, 137, 138, 139, 140, 141
 142, 143, 144, 145, 146, 147, 148, 149, 150, 151, 152, 153, 154, 155, 156, 157
 158, 159, 160, 161, 162, 163, 164, 165, 166, 167, 168, 169, 170, 171, 172, 173
 174, 175, 176, 177, 178, 179, 180, 181, 182, 183, 184, 185, 186, 187, 188, 189
 190, 191, 192, 193, 194
*Elset, elset=Set-6, instance=Part-1-1, generate
 1597,  1680,     1
*Nset, nset=Set-7
 1,
*Nset, nset=m_Set-4
 1,
*Elset, elset=_s_Surf-1_S2, internal, instance=Part-1-1, generate
 1767,  3427,    20
*Surface, type=ELEMENT, name=s_Surf-1
_s_Surf-1_S2, S2
*Elset, elset=_s_Surf-2_S2, internal, instance=Part-1-1, generate
 1767,  3427,    20
*Surface, type=ELEMENT, name=s_Surf-2
_s_Surf-2_S2, S2
** Constraint: Constraint-2
*Coupling, constraint name=Constraint-2, ref node=m_Set-4, surface=s_Surf-2
*Kinematic
*End Assembly
** 
** ELEMENT CONTROLS
** 
*Section Controls, name=EC-1, ELEMENT DELETION=YES, MAX DEGRADATION=1.
1., 1., 1.
** 
** MATERIALS
** 
*Material, name=Rubber
*Elastic
200., 0.3
*Material, name=Trapi
*Damage Initiation, criterion=QUADS, position=COMBINED
 0.1, 0.1, 0.1
*Damage Evolution, type=DISPLACEMENT, softening=TABULAR
       0.,          0.
 0.087686, 9.61138e-06
 0.161234, 1.92228e-05
 0.223808, 2.88341e-05
 0.277694, 3.84455e-05
 0.324584, 4.80569e-05
 0.365757, 5.76683e-05
 0.402199, 6.72797e-05
  0.43468,  7.6891e-05
 0.463814, 8.65024e-05
 0.490092, 9.61138e-05
 0.513915, 0.000105725
 0.535611, 0.000115337
 0.555453, 0.000124948
 0.573669, 0.000134559
  0.59045, 0.000144171
 0.605961, 0.000153782
  0.62034, 0.000163393
 0.633706, 0.000173005
 0.646163, 0.000182616
** ... 173 like lines cut
*Damage Stabilization
0.0001
*Elastic, type=TRACTION
1000.,1000.,1000.
*Material, name=Tri
*Damage Initiation, criterion=QUADS
 0.1, 0.1, 0.1
*Damage Evolution, type=ENERGY
 0.005,
*Elastic, type=TRACTION
100.,100.,100.
** ----------------------------------------------------------------
** 
** STEP: Step-1
** 
*Step, name=Step-1, nlgeom=YES, inc=10000
*Static, stabilize=0.0002, allsdtol=0.05, continue=NO
0.01, 1., 1e-15, 0.1
** 
** BOUNDARY CONDITIONS
** 
** Name: BC-1 Type: Symmetry/Antisymmetry/Encastre
*Boundary
Set-6, ENCASTRE
** Name: BC-2 Type: Displacement/Rotation
*Boundary
Set-7, 1, 1
Set-7, 2, 2, 0.2
Set-7, 6, 6
** 
** OUTPUT REQUESTS
** 
*Restart, write, frequency=0
** 
** FIELD OUTPUT: F-Output-1
** 
*Output, field
*Node Output
CF, RF, RT, U
*Element Output, directions=YES
LE, PE, PEEQ, PEMAG, S, SDEG, STATUS
*Contact Output
CDISP, CSTRESS
** 
** HISTORY OUTPUT: H-Output-1
** 
*Output, history
*Node Output, nset=RefP
RF2, U2
*End Step
